examples/data/enwl/lv-network-models/network_7/Feeder_5/Lines.txt
New Line.LINE1 Bus1=1 Bus2=2 phases=3 Linecode=4c_.3 Length=0.5595 Units=m
New Line.LINE2 Bus1=2 Bus2=3 phases=3 Linecode=4c_.3 Length=0.11962 Units=m
New Line.LINE3 Bus1=3 Bus2=4 phases=3 Linecode=4c_.3 Length=0.09454 Units=m
New Line.LINE4 Bus1=4 Bus2=5 phases=3 Linecode=4c_.3 Length=0.11895 Units=m
New Line.LINE5 Bus1=5 Bus2=6 phases=3 Linecode=4c_.3 Length=0.14004 Units=m
New Line.LINE6 Bus1=6 Bus2=7 phases=3 Linecode=4c_.3 Length=0.15352 Units=m
New Line.LINE7 Bus1=7 Bus2=8 phases=3 Linecode=4c_.3 Length=1.5549 Units=m
New Line.LINE8 Bus1=8 Bus2=9 phases=3 Linecode=4c_.3 Length=0.070328 Units=m
New Line.LINE9 Bus1=9 Bus2=10 phases=3 Linecode=4c_.3 Length=0.05665 Units=m
New Line.LINE10 Bus1=10 Bus2=11 phases=3 Linecode=4c_.3 Length=0.057721 Units=m
New Line.LINE11 Bus1=11 Bus2=12 phases=3 Linecode=4c_.3 Length=0.052612 Units=m
New Line.LINE12 Bus1=12 Bus2=13 phases=3 Linecode=4c_.3 Length=0.06601 Units=m
New Line.LINE13 Bus1=13 Bus2=14 phases=3 Linecode=4c_.3 Length=0.48508 Units=m
New Line.LINE14 Bus1=14 Bus2=15 phases=3 Linecode=4c_.3 Length=0.096177 Units=m
New Line.LINE15 Bus1=15 Bus2=16 phases=3 Linecode=4c_.3 Length=0.077833 Units=m
New Line.LINE16 Bus1=16 Bus2=17 phases=3 Linecode=4c_.3 Length=0.35288 Units=m
New Line.LINE17 Bus1=17 Bus2=18 phases=3 Linecode=4c_.3 Length=0.27654 Units=m
New Line.LINE18 Bus1=18 Bus2=19 phases=3 Linecode=4c_.3 Length=0.17045 Units=m
New Line.LINE19 Bus1=19 Bus2=20 phases=3 Linecode=4c_.3 Length=0.15605 Units=m
New Line.LINE20 Bus1=20 Bus2=21 phases=3 Linecode=4c_.3 Length=0.17951 Units=m
New Line.LINE21 Bus1=21 Bus2=22 phases=3 Linecode=4c_.3 Length=0.12953 Units=m
New Line.LINE22 Bus1=22 Bus2=23 phases=3 Linecode=4c_.3 Length=0.28053 Units=m
New Line.LINE23 Bus1=23 Bus2=24 phases=3 Linecode=4c_.3 Length=0.25365 Units=m
New Line.LINE24 Bus1=24 Bus2=25 phases=3 Linecode=4c_.3 Length=0.31708 Units=m
New Line.LINE25 Bus1=25 Bus2=26 phases=3 Linecode=4c_.3 Length=1.0419 Units=m
New Line.LINE26 Bus1=26 Bus2=27 phases=3 Linecode=4c_.3 Length=2.3744 Units=m
New Line.LINE27 Bus1=27 Bus2=28 phases=3 Linecode=4c_.3 Length=1.6302 Units=m
New Line.LINE28 Bus1=28 Bus2=29 phases=3 Linecode=4c_.1_AS Length=0.68626 Units=m
New Line.LINE29 Bus1=28 Bus2=30 phases=3 Linecode=4c_.2 Length=2.0979 Units=m
New Line.LINE30 Bus1=29 Bus2=31 phases=3 Linecode=4c_.1_AS Length=0.39562 Units=m
New Line.LINE31 Bus1=30 Bus2=32 phases=3 Linecode=4c_.2 Length=1.303 Units=m
New Line.LINE32 Bus1=31 Bus2=33 phases=3 Linecode=4c_.1_AS Length=0.21446 Units=m
New Line.LINE33 Bus1=32 Bus2=34 phases=3 Linecode=4c_.2 Length=0.5329 Units=m
New Line.LINE34 Bus1=33 Bus2=35 phases=3 Linecode=4c_.1_AS Length=0.20665 Units=m
New Line.LINE35 Bus1=34 Bus2=36 phases=3 Linecode=4c_.2 Length=0.30684 Units=m
New Line.LINE36 Bus1=35 Bus2=37 phases=3 Linecode=4c_.1_AS Length=0.18474 Units=m
New Line.LINE37 Bus1=36 Bus2=38 phases=3 Linecode=4c_.2 Length=6.1722 Units=m
New Line.LINE38 Bus1=37 Bus2=39 phases=3 Linecode=4c_.1_AS Length=0.11924 Units=m
New Line.LINE39 Bus1=38 Bus2=40 phases=3 Linecode=4c_.2 Length=0.59357 Units=m
New Line.LINE40 Bus1=39 Bus2=41 phases=3 Linecode=4c_.1_AS Length=0.15247 Units=m
New Line.LINE41 Bus1=40 Bus2=42 phases=3 Linecode=4c_.2 Length=0.43696 Units=m
New Line.LINE42 Bus1=41 Bus2=43 phases=3 Linecode=4c_.1_AS Length=0.21137 Units=m
New Line.LINE43 Bus1=42 Bus2=44 phases=3 Linecode=4c_.2 Length=0.41495 Units=m
New Line.LINE44 Bus1=43 Bus2=45 phases=3 Linecode=4c_.1_AS Length=0.3905 Units=m
New Line.LINE45 Bus1=44 Bus2=46 phases=3 Linecode=4c_.2 Length=0.303 Units=m
New Line.LINE46 Bus1=45 Bus2=47 phases=3 Linecode=4c_.1_AS Length=4.2046 Units=m
New Line.LINE47 Bus1=46 Bus2=48 phases=3 Linecode=4c_.2 Length=0.19579 Units=m
New Line.LINE48 Bus1=47 Bus2=49 phases=3 Linecode=3c_.06_AS Length=2.4771 Units=m
New Line.LINE49 Bus1=48 Bus2=50 phases=3 Linecode=4c_.2 Length=0.28181 Units=m
New Line.LINE50 Bus1=49 Bus2=51 phases=3 Linecode=2c_.0225 Length=3.1832 Units=m
New Line.LINE51 Bus1=49 Bus2=52 phases=3 Linecode=3c_.06_AS Length=3.4582 Units=m
New Line.LINE52 Bus1=50 Bus2=53 phases=3 Linecode=4c_.2 Length=3.6554 Units=m
New Line.LINE53 Bus1=50 Bus2=54 phases=3 Linecode=3c_.1_AS Length=1.1893 Units=m
New Line.LINE54 Bus1=51 Bus2=55 phases=3 Linecode=2c_.0225 Length=5.847 Units=m
New Line.LINE55 Bus1=52 Bus2=56 phases=3 Linecode=2c_.022 Length=1.8373 Units=m
New Line.LINE56 Bus1=52 Bus2=57 phases=3 Linecode=3c_.06_AS Length=3.2626 Units=m
New Line.LINE57 Bus1=53 Bus2=58 phases=3 Linecode=2c_.0225 Length=1.1079 Units=m
New Line.LINE58 Bus1=53 Bus2=59 phases=3 Linecode=4c_.2 Length=3.7223 Units=m
New Line.LINE59 Bus1=54 Bus2=60 phases=3 Linecode=2c_.007 Length=0.33587 Units=m
New Line.LINE60 Bus1=54 Bus2=61 phases=3 Linecode=3c_.1_AS Length=0.78482 Units=m
New Line.LINE61 Bus1=56 Bus2=62 phases=3 Linecode=2c_.022 Length=1.0655 Units=m
New Line.LINE62 Bus1=57 Bus2=63 phases=3 Linecode=3c_.06_AS Length=1.7415 Units=m
New Line.LINE63 Bus1=58 Bus2=64 phases=3 Linecode=2c_.0225 Length=0.76671 Units=m
New Line.LINE64 Bus1=59 Bus2=65 phases=3 Linecode=2c_.0225 Length=3.3682 Units=m
New Line.LINE65 Bus1=59 Bus2=66 phases=3 Linecode=4c_.2 Length=2.9406 Units=m
New Line.LINE66 Bus1=60 Bus2=67 phases=3 Linecode=2c_.007 Length=0.24792 Units=m
New Line.LINE67 Bus1=61 Bus2=68 phases=3 Linecode=3c_.1_AS Length=3.3115 Units=m
New Line.LINE68 Bus1=61 Bus2=69 phases=3 Linecode=3c_.1_AS Length=5.8185 Units=m
New Line.LINE69 Bus1=62 Bus2=70 phases=3 Linecode=2c_.022 Length=0.53955 Units=m
New Line.LINE70 Bus1=63 Bus2=71 phases=3 Linecode=3c_.06_AS Length=1.0234 Units=m
New Line.LINE71 Bus1=64 Bus2=72 phases=3 Linecode=2c_.0225 Length=1.5034 Units=m
New Line.LINE72 Bus1=65 Bus2=73 phases=3 Linecode=2c_.0225 Length=8.7977 Units=m
New Line.LINE73 Bus1=66 Bus2=74 phases=3 Linecode=4c_.2 Length=5.358 Units=m
New Line.LINE74 Bus1=67 Bus2=75 phases=3 Linecode=2c_.007 Length=0.19932 Units=m
New Line.LINE75 Bus1=68 Bus2=76 phases=3 Linecode=3c_.1_AS Length=7.6374 Units=m
New Line.LINE76 Bus1=69 Bus2=77 phases=3 Linecode=3c_.1_AS Length=0.2144 Units=m
New Line.LINE77 Bus1=69 Bus2=78 phases=3 Linecode=3c_.1_AS Length=0.97532 Units=m
New Line.LINE78 Bus1=70 Bus2=79 phases=3 Linecode=2c_.022 Length=5.3013 Units=m
New Line.LINE79 Bus1=71 Bus2=80 phases=3 Linecode=3c_.06_AS Length=2.5985 Units=m
New Line.LINE80 Bus1=71 Bus2=81 phases=3 Linecode=3c_.06_AS Length=4.3463 Units=m
New Line.LINE81 Bus1=72 Bus2=82 phases=3 Linecode=2c_.0225 Length=7.6242 Units=m
New Line.LINE82 Bus1=74 Bus2=83 phases=3 Linecode=2c_.0225 Length=3.3197 Units=m
New Line.LINE83 Bus1=74 Bus2=84 phases=3 Linecode=4c_.2 Length=1.7077 Units=m
New Line.LINE84 Bus1=75 Bus2=85 phases=3 Linecode=2c_.007 Length=0.15854 Units=m
New Line.LINE85 Bus1=77 Bus2=86 phases=3 Linecode=3c_.1_AS Length=0.091922 Units=m
New Line.LINE86 Bus1=78 Bus2=87 phases=3 Linecode=3c_.1_AS Length=3.5261 Units=m
New Line.LINE87 Bus1=78 Bus2=88 phases=3 Linecode=3c_.1_AS Length=4.7432 Units=m
New Line.LINE88 Bus1=80 Bus2=89 phases=3 Linecode=3c_.06_AS Length=0.34986 Units=m
New Line.LINE89 Bus1=81 Bus2=90 phases=3 Linecode=2c_.022 Length=2.2496 Units=m
New Line.LINE90 Bus1=81 Bus2=91 phases=3 Linecode=3c_.06_AS Length=0.76506 Units=m
New Line.LINE91 Bus1=83 Bus2=92 phases=3 Linecode=2c_.0225 Length=8.933 Units=m
New Line.LINE92 Bus1=84 Bus2=93 phases=3 Linecode=2c_.0225 Length=3.3333 Units=m
New Line.LINE93 Bus1=84 Bus2=94 phases=3 Linecode=4c_.2 Length=7.7289 Units=m
New Line.LINE94 Bus1=85 Bus2=95 phases=3 Linecode=16_PSC Length=0.21077 Units=m
New Line.LINE95 Bus1=86 Bus2=96 phases=3 Linecode=3c_.1_AS Length=0.079405 Units=m
New Line.LINE96 Bus1=87 Bus2=97 phases=3 Linecode=3c_.1_AS Length=6.601 Units=m
New Line.LINE97 Bus1=88 Bus2=98 phases=3 Linecode=3c_.1_AS Length=2.0908 Units=m
New Line.LINE98 Bus1=88 Bus2=99 phases=3 Linecode=3c_.1_AS Length=5.5743 Units=m
New Line.LINE99 Bus1=89 Bus2=100 phases=3 Linecode=3c_.06_AS Length=0.20716 Units=m
New Line.LINE100 Bus1=90 Bus2=101 phases=3 Linecode=2c_.022 Length=0.39741 Units=m
New Line.LINE101 Bus1=91 Bus2=102 phases=3 Linecode=3c_.06_AS Length=2.4083 Units=m
New Line.LINE102 Bus1=93 Bus2=103 phases=3 Linecode=2c_.0225 Length=8.8131 Units=m
New Line.LINE103 Bus1=94 Bus2=104 phases=3 Linecode=2c_.0225 Length=3.2599 Units=m
New Line.LINE104 Bus1=94 Bus2=105 phases=3 Linecode=4c_.2 Length=1.6156 Units=m
New Line.LINE105 Bus1=95 Bus2=106 phases=3 Linecode=16_PSC Length=0.21663 Units=m
New Line.LINE106 Bus1=96 Bus2=107 phases=3 Linecode=3c_.1_AS Length=0.088277 Units=m
New Line.LINE107 Bus1=98 Bus2=108 phases=3 Linecode=3c_.1_AS Length=1.436 Units=m
New Line.LINE108 Bus1=99 Bus2=109 phases=3 Linecode=3c_.1_AS Length=3.527 Units=m
New Line.LINE109 Bus1=99 Bus2=110 phases=3 Linecode=3c_.1_AS Length=7.3938 Units=m
New Line.LINE110 Bus1=100 Bus2=111 phases=3 Linecode=3c_.06_AS Length=0.34588 Units=m
New Line.LINE111 Bus1=101 Bus2=112 phases=3 Linecode=2c_.022 Length=0.19275 Units=m
New Line.LINE112 Bus1=102 Bus2=113 phases=3 Linecode=3c_.06_AS Length=2.2321 Units=m
New Line.LINE113 Bus1=104 Bus2=114 phases=3 Linecode=2c_.0225 Length=9.0983 Units=m
New Line.LINE114 Bus1=105 Bus2=115 phases=3 Linecode=2c_.0225 Length=3.2891 Units=m
New Line.LINE115 Bus1=105 Bus2=116 phases=3 Linecode=4c_.2 Length=8.039 Units=m
New Line.LINE116 Bus1=106 Bus2=117 phases=3 Linecode=16_PSC Length=0.2416 Units=m
New Line.LINE117 Bus1=107 Bus2=118 phases=3 Linecode=3c_.1_AS Length=0.13164 Units=m
New Line.LINE118 Bus1=108 Bus2=119 phases=3 Linecode=3c_.1_AS Length=6.9756 Units=m
New Line.LINE119 Bus1=109 Bus2=120 phases=3 Linecode=3c_.1_AS Length=6.5451 Units=m
New Line.LINE120 Bus1=110 Bus2=121 phases=3 Linecode=3c_.1_AS Length=3.1369 Units=m
New Line.LINE121 Bus1=110 Bus2=122 phases=3 Linecode=3c_.1_AS Length=1.4022 Units=m
New Line.LINE122 Bus1=111 Bus2=123 phases=3 Linecode=3c_.06_AS Length=5.2597 Units=m
New Line.LINE123 Bus1=112 Bus2=124 phases=3 Linecode=2c_.022 Length=0.1814 Units=m
New Line.LINE124 Bus1=113 Bus2=125 phases=3 Linecode=3c_.06_AS Length=3.5757 Units=m
New Line.LINE125 Bus1=113 Bus2=126 phases=3 Linecode=3c_.06_AS Length=5.0893 Units=m
New Line.LINE126 Bus1=115 Bus2=127 phases=3 Linecode=2c_.0225 Length=8.9991 Units=m
New Line.LINE127 Bus1=116 Bus2=128 phases=3 Linecode=2c_.0225 Length=3.2611 Units=m
New Line.LINE128 Bus1=116 Bus2=129 phases=3 Linecode=4c_.2 Length=1.1892 Units=m
New Line.LINE129 Bus1=117 Bus2=130 phases=3 Linecode=16_PSC Length=0.32462 Units=m
New Line.LINE130 Bus1=118 Bus2=131 phases=3 Linecode=3c_.1_AS Length=0.14401 Units=m
New Line.LINE131 Bus1=121 Bus2=132 phases=3 Linecode=3c_.1_AS Length=0.40062 Units=m
New Line.LINE132 Bus1=122 Bus2=133 phases=3 Linecode=3c_.1_AS Length=2.2532 Units=m
New Line.LINE133 Bus1=124 Bus2=134 phases=3 Linecode=2c_.022 Length=0.1814 Units=m
New Line.LINE134 Bus1=125 Bus2=135 phases=3 Linecode=3c_.06_AS Length=4.7984 Units=m
New Line.LINE135 Bus1=126 Bus2=136 phases=3 Linecode=3c_.06_AS Length=1.3504 Units=m
New Line.LINE136 Bus1=126 Bus2=137 phases=3 Linecode=3c_.06_AS Length=2.9216 Units=m
New Line.LINE137 Bus1=128 Bus2=138 phases=3 Linecode=2c_.0225 Length=8.681 Units=m
New Line.LINE138 Bus1=129 Bus2=139 phases=3 Linecode=2c_.0225 Length=3.2464 Units=m
New Line.LINE139 Bus1=129 Bus2=140 phases=3 Linecode=4c_.2 Length=6.419 Units=m
New Line.LINE140 Bus1=131 Bus2=141 phases=3 Linecode=3c_.1_AS Length=0.1051 Units=m
New Line.LINE141 Bus1=132 Bus2=142 phases=3 Linecode=3c_.1_AS Length=6.9366 Units=m
New Line.LINE142 Bus1=133 Bus2=143 phases=3 Linecode=3c_.1_AS Length=3.5252 Units=m
New Line.LINE143 Bus1=133 Bus2=144 phases=3 Linecode=3c_.1_AS Length=4.7219 Units=m
New Line.LINE144 Bus1=134 Bus2=145 phases=3 Linecode=2c_.022 Length=0.18888 Units=m
New Line.LINE145 Bus1=136 Bus2=146 phases=3 Linecode=3c_.06_AS Length=0.47466 Units=m
New Line.LINE146 Bus1=137 Bus2=147 phases=3 Linecode=2c_.007 Length=0.39846 Units=m
New Line.LINE147 Bus1=137 Bus2=148 phases=3 Linecode=3c_.06_AS Length=2.7653 Units=m
New Line.LINE148 Bus1=139 Bus2=149 phases=3 Linecode=2c_.0225 Length=8.9448 Units=m
New Line.LINE149 Bus1=140 Bus2=150 phases=3 Linecode=16_PSC Length=2.3315 Units=m
New Line.LINE150 Bus1=140 Bus2=151 phases=3 Linecode=4c_.2 Length=0.12159 Units=m
New Line.LINE151 Bus1=141 Bus2=152 phases=3 Linecode=3c_.1_AS Length=0.11769 Units=m
New Line.LINE152 Bus1=143 Bus2=153 phases=3 Linecode=3c_.1_AS Length=6.506 Units=m
New Line.LINE153 Bus1=144 Bus2=154 phases=3 Linecode=3c_.1_AS Length=3.6128 Units=m
New Line.LINE154 Bus1=144 Bus2=155 phases=3 Linecode=3c_.1_AS Length=0.37835 Units=m
New Line.LINE155 Bus1=145 Bus2=156 phases=3 Linecode=2c_.022 Length=0.74075 Units=m
New Line.LINE156 Bus1=146 Bus2=157 phases=3 Linecode=3c_.06_AS Length=0.34795 Units=m
New Line.LINE157 Bus1=147 Bus2=158 phases=3 Linecode=2c_.007 Length=0.14611 Units=m
New Line.LINE158 Bus1=148 Bus2=159 phases=3 Linecode=3c_.06_AS Length=1.1897 Units=m
New Line.LINE159 Bus1=148 Bus2=160 phases=3 Linecode=3c_.06_AS Length=4.7409 Units=m
New Line.LINE160 Bus1=150 Bus2=161 phases=3 Linecode=16_PSC Length=0.23204 Units=m
New Line.LINE161 Bus1=151 Bus2=162 phases=3 Linecode=4c_.2 Length=2.2532 Units=m
New Line.LINE162 Bus1=152 Bus2=163 phases=3 Linecode=3c_.1_AS Length=0.23396 Units=m
New Line.LINE163 Bus1=154 Bus2=164 phases=3 Linecode=3c_.1_AS Length=6.5905 Units=m
New Line.LINE164 Bus1=155 Bus2=165 phases=3 Linecode=3c_.1_AS Length=4.1631 Units=m
New Line.LINE165 Bus1=156 Bus2=166 phases=3 Linecode=2c_.022 Length=5.4786 Units=m
New Line.LINE166 Bus1=157 Bus2=167 phases=3 Linecode=3c_.06_AS Length=0.52931 Units=m
New Line.LINE167 Bus1=158 Bus2=168 phases=3 Linecode=2c_.007 Length=0.21874 Units=m
New Line.LINE168 Bus1=159 Bus2=169 phases=3 Linecode=3c_.06_AS Length=0.41397 Units=m
New Line.LINE169 Bus1=160 Bus2=170 phases=3 Linecode=3c_.06_AS Length=0.85931 Units=m
New Line.LINE170 Bus1=160 Bus2=171 phases=3 Linecode=3c_.06_AS Length=0.71075 Units=m
New Line.LINE171 Bus1=161 Bus2=172 phases=3 Linecode=16_PSC Length=0.30124 Units=m
New Line.LINE172 Bus1=162 Bus2=173 phases=3 Linecode=4c_.2 Length=1.3459 Units=m
New Line.LINE173 Bus1=165 Bus2=174 phases=3 Linecode=3c_25_SAC_XSC Length=2.3729 Units=m
New Line.LINE174 Bus1=167 Bus2=175 phases=3 Linecode=3c_.06_AS Length=1.0262 Units=m
New Line.LINE175 Bus1=168 Bus2=176 phases=3 Linecode=2c_.007 Length=0.20223 Units=m
New Line.LINE176 Bus1=169 Bus2=177 phases=3 Linecode=3c_.06_AS Length=0.36615 Units=m
New Line.LINE177 Bus1=170 Bus2=178 phases=3 Linecode=3c_.06_AS Length=0.35971 Units=m
New Line.LINE178 Bus1=171 Bus2=179 phases=3 Linecode=3c_.06_AS Length=5.0001 Units=m
New Line.LINE179 Bus1=172 Bus2=180 phases=3 Linecode=16_PSC Length=0.42363 Units=m
New Line.LINE180 Bus1=173 Bus2=181 phases=3 Linecode=4c_.2 Length=0.59909 Units=m
New Line.LINE181 Bus1=173 Bus2=182 phases=3 Linecode=2c_.007 Length=0.33725 Units=m
New Line.LINE182 Bus1=174 Bus2=183 phases=3 Linecode=3c_.06_AS Length=3.623 Units=m
New Line.LINE183 Bus1=174 Bus2=184 phases=3 Linecode=25_PSC Length=0.42246 Units=m
New Line.LINE184 Bus1=175 Bus2=185 phases=3 Linecode=3c_.06_AS Length=5.5954 Units=m
New Line.LINE185 Bus1=176 Bus2=186 phases=3 Linecode=2c_.007 Length=0.17203 Units=m
New Line.LINE186 Bus1=177 Bus2=187 phases=3 Linecode=3c_.06_AS Length=0.5514 Units=m
New Line.LINE187 Bus1=178 Bus2=188 phases=3 Linecode=3c_.06_AS Length=0.14365 Units=m
New Line.LINE188 Bus1=179 Bus2=189 phases=3 Linecode=3c_.06_AS Length=1.0263 Units=m
New Line.LINE189 Bus1=179 Bus2=190 phases=3 Linecode=3c_.06_AS Length=4.424 Units=m
New Line.LINE190 Bus1=180 Bus2=191 phases=3 Linecode=16_PSC Length=9.5184 Units=m
New Line.LINE191 Bus1=181 Bus2=192 phases=3 Linecode=4c_.2 Length=0.23779 Units=m
New Line.LINE192 Bus1=182 Bus2=193 phases=3 Linecode=2c_.007 Length=0.28047 Units=m
New Line.LINE193 Bus1=183 Bus2=194 phases=3 Linecode=3c_.06_AS Length=1.5574 Units=m
New Line.LINE194 Bus1=183 Bus2=195 phases=3 Linecode=2c_.022 Length=0.68006 Units=m
New Line.LINE195 Bus1=184 Bus2=196 phases=3 Linecode=25_PSC Length=0.17809 Units=m
New Line.LINE196 Bus1=186 Bus2=197 phases=3 Linecode=2c_.007 Length=0.1212 Units=m
New Line.LINE197 Bus1=187 Bus2=198 phases=3 Linecode=3c_.06_AS Length=1.0894 Units=m
New Line.LINE198 Bus1=188 Bus2=199 phases=3 Linecode=3c_.06_AS Length=0.59128 Units=m
New Line.LINE199 Bus1=189 Bus2=200 phases=3 Linecode=3c_.06_AS Length=0.47564 Units=m
New Line.LINE200 Bus1=190 Bus2=201 phases=3 Linecode=3c_.06_AS Length=1.1781 Units=m
New Line.LINE201 Bus1=190 Bus2=202 phases=3 Linecode=3c_.06_AS Length=1.1864 Units=m
New Line.LINE202 Bus1=192 Bus2=203 phases=3 Linecode=4c_.2 Length=0.30969 Units=m
New Line.LINE203 Bus1=193 Bus2=204 phases=3 Linecode=2c_.007 Length=0.29771 Units=m
New Line.LINE204 Bus1=194 Bus2=205 phases=3 Linecode=3c_.06_AS Length=4.6383 Units=m
New Line.LINE205 Bus1=195 Bus2=206 phases=3 Linecode=2c_.022 Length=0.65969 Units=m
New Line.LINE206 Bus1=196 Bus2=207 phases=3 Linecode=25_PSC Length=0.084998 Units=m
New Line.LINE207 Bus1=197 Bus2=208 phases=3 Linecode=2c_.007 Length=0.28137 Units=m
New Line.LINE208 Bus1=198 Bus2=209 phases=3 Linecode=3c_.06_AS Length=6.1435 Units=m
New Line.LINE209 Bus1=199 Bus2=210 phases=3 Linecode=3c_.06_AS Length=0.268 Units=m
New Line.LINE210 Bus1=200 Bus2=211 phases=3 Linecode=3c_.06_AS Length=0.76067 Units=m
New Line.LINE211 Bus1=201 Bus2=212 phases=3 Linecode=3c_.06_AS Length=0.33468 Units=m
New Line.LINE212 Bus1=202 Bus2=213 phases=3 Linecode=3c_.06_AS Length=5.248 Units=m
New Line.LINE213 Bus1=203 Bus2=214 phases=3 Linecode=4c_.2 Length=0.23517 Units=m
New Line.LINE214 Bus1=204 Bus2=215 phases=3 Linecode=2c_.007 Length=0.24763 Units=m
New Line.LINE215 Bus1=205 Bus2=216 phases=3 Linecode=3c_.06_AS Length=3.8601 Units=m
New Line.LINE216 Bus1=205 Bus2=217 phases=3 Linecode=2c_.022 Length=0.42109 Units=m
New Line.LINE217 Bus1=206 Bus2=218 phases=3 Linecode=2c_.022 Length=0.82562 Units=m
New Line.LINE218 Bus1=207 Bus2=219 phases=3 Linecode=25_PSC Length=0.15604 Units=m
New Line.LINE219 Bus1=208 Bus2=220 phases=3 Linecode=2c_.007 Length=0.45732 Units=m
New Line.LINE220 Bus1=210 Bus2=221 phases=3 Linecode=3c_.06_AS Length=0.24622 Units=m
New Line.LINE221 Bus1=211 Bus2=222 phases=3 Linecode=3c_.06_AS Length=0.52723 Units=m
New Line.LINE222 Bus1=212 Bus2=223 phases=3 Linecode=3c_.06_AS Length=0.22192 Units=m
New Line.LINE223 Bus1=213 Bus2=224 phases=3 Linecode=3c_.06_AS Length=0.57536 Units=m
New Line.LINE224 Bus1=213 Bus2=225 phases=3 Linecode=3c_.06_AS Length=4.0051 Units=m
New Line.LINE225 Bus1=214 Bus2=226 phases=3 Linecode=4c_.2 Length=0.32765 Units=m
New Line.LINE226 Bus1=215 Bus2=227 phases=3 Linecode=2c_.007 Length=0.32819 Units=m
New Line.LINE227 Bus1=216 Bus2=228 phases=3 Linecode=3c_.06_AS Length=3.2566 Units=m
New Line.LINE228 Bus1=216 Bus2=229 phases=3 Linecode=3c_.06_AS Length=3.3603 Units=m
New Line.LINE229 Bus1=217 Bus2=230 phases=3 Linecode=2c_.022 Length=0.31943 Units=m
New Line.LINE230 Bus1=218 Bus2=231 phases=3 Linecode=2c_.022 Length=0.61014 Units=m
New Line.LINE231 Bus1=219 Bus2=232 phases=3 Linecode=25_PSC Length=0.17154 Units=m
New Line.LINE232 Bus1=220 Bus2=233 phases=3 Linecode=2c_.007 Length=0.09 Units=m
New Line.LINE233 Bus1=221 Bus2=234 phases=3 Linecode=3c_.06_AS Length=0.47393 Units=m
New Line.LINE234 Bus1=222 Bus2=235 phases=3 Linecode=3c_.06_AS Length=0.92847 Units=m
New Line.LINE235 Bus1=223 Bus2=236 phases=3 Linecode=3c_.06_AS Length=0.85259 Units=m
New Line.LINE236 Bus1=224 Bus2=237 phases=3 Linecode=3c_.06_AS Length=0.39828 Units=m
New Line.LINE237 Bus1=225 Bus2=238 phases=3 Linecode=3c_.06_AS Length=1.8366 Units=m
New Line.LINE238 Bus1=225 Bus2=239 phases=3 Linecode=3c_.06_AS Length=2.1444 Units=m
New Line.LINE239 Bus1=226 Bus2=240 phases=3 Linecode=4c_.2 Length=0.3262 Units=m
New Line.LINE240 Bus1=227 Bus2=241 phases=3 Linecode=2c_.007 Length=0.17678 Units=m
New Line.LINE241 Bus1=228 Bus2=242 phases=3 Linecode=3c_.06_AS Length=3.0717 Units=m
New Line.LINE242 Bus1=229 Bus2=243 phases=3 Linecode=3c_.06_AS Length=7.3598 Units=m
New Line.LINE243 Bus1=230 Bus2=244 phases=3 Linecode=2c_.022 Length=0.28484 Units=m
New Line.LINE244 Bus1=231 Bus2=245 phases=3 Linecode=2c_.022 Length=1.4001 Units=m
New Line.LINE245 Bus1=232 Bus2=246 phases=3 Linecode=25_PSC Length=0.099463 Units=m
New Line.LINE246 Bus1=233 Bus2=247 phases=3 Linecode=2c_.007 Length=0.12209 Units=m
New Line.LINE247 Bus1=234 Bus2=248 phases=3 Linecode=3c_.06_AS Length=0.68924 Units=m
New Line.LINE248 Bus1=235 Bus2=249 phases=3 Linecode=3c_.06_AS Length=5.2218 Units=m
New Line.LINE249 Bus1=236 Bus2=250 phases=3 Linecode=3c_.06_AS Length=1.1529 Units=m
New Line.LINE250 Bus1=237 Bus2=251 phases=3 Linecode=3c_.06_AS Length=0.48177 Units=m
New Line.LINE251 Bus1=238 Bus2=252 phases=3 Linecode=3c_.06_AS Length=0.42292 Units=m
New Line.LINE252 Bus1=240 Bus2=253 phases=3 Linecode=4c_.2 Length=0.48187 Units=m
New Line.LINE253 Bus1=241 Bus2=254 phases=3 Linecode=4_PSC Length=0.59476 Units=m
New Line.LINE254 Bus1=242 Bus2=255 phases=3 Linecode=3c_.06_AS Length=4.278 Units=m
New Line.LINE255 Bus1=242 Bus2=256 phases=3 Linecode=3c_.06_AS Length=3.2834 Units=m
New Line.LINE256 Bus1=244 Bus2=257 phases=3 Linecode=2c_.022 Length=0.33446 Units=m
New Line.LINE257 Bus1=245 Bus2=258 phases=3 Linecode=2c_.022 Length=6.9923 Units=m
New Line.LINE258 Bus1=246 Bus2=259 phases=3 Linecode=25_PSC Length=0.13936 Units=m
New Line.LINE259 Bus1=247 Bus2=260 phases=3 Linecode=2c_.007 Length=0.08095 Units=m
New Line.LINE260 Bus1=248 Bus2=261 phases=3 Linecode=3c_.06_AS Length=5.1493 Units=m
New Line.LINE261 Bus1=250 Bus2=262 phases=3 Linecode=3c_.06_AS Length=5.9799 Units=m
New Line.LINE262 Bus1=251 Bus2=263 phases=3 Linecode=3c_.06_AS Length=0.91857 Units=m
New Line.LINE263 Bus1=252 Bus2=264 phases=3 Linecode=3c_.06_AS Length=0.26154 Units=m
New Line.LINE264 Bus1=253 Bus2=265 phases=3 Linecode=4c_.2 Length=0.34097 Units=m
New Line.LINE265 Bus1=255 Bus2=266 phases=3 Linecode=3c_.06_AS Length=1.4792 Units=m
New Line.LINE266 Bus1=255 Bus2=267 phases=3 Linecode=3c_.06_AS Length=0.90312 Units=m
New Line.LINE267 Bus1=256 Bus2=268 phases=3 Linecode=3c_.06_AS Length=7.3774 Units=m
New Line.LINE268 Bus1=257 Bus2=269 phases=3 Linecode=2c_.022 Length=0.48506 Units=m
New Line.LINE269 Bus1=259 Bus2=270 phases=3 Linecode=25_PSC Length=0.18659 Units=m
New Line.LINE270 Bus1=260 Bus2=271 phases=3 Linecode=2c_.007 Length=0.10254 Units=m
New Line.LINE271 Bus1=263 Bus2=272 phases=3 Linecode=3c_.06_AS Length=0.57617 Units=m
New Line.LINE272 Bus1=264 Bus2=273 phases=3 Linecode=3c_.06_AS Length=0.20506 Units=m
New Line.LINE273 Bus1=265 Bus2=274 phases=3 Linecode=4c_.2 Length=0.44282 Units=m
New Line.LINE274 Bus1=266 Bus2=275 phases=3 Linecode=3c_.06_AS Length=2.9964 Units=m
New Line.LINE275 Bus1=267 Bus2=276 phases=3 Linecode=3c_.06_AS Length=0.35196 Units=m
New Line.LINE276 Bus1=269 Bus2=277 phases=3 Linecode=2c_.022 Length=0.95782 Units=m
New Line.LINE277 Bus1=270 Bus2=278 phases=3 Linecode=25_PSC Length=0.18896 Units=m
New Line.LINE278 Bus1=271 Bus2=279 phases=3 Linecode=2c_.007 Length=0.090801 Units=m
New Line.LINE279 Bus1=272 Bus2=280 phases=3 Linecode=3c_.06_AS Length=0.5826 Units=m
New Line.LINE280 Bus1=273 Bus2=281 phases=3 Linecode=3c_.06_AS Length=0.92382 Units=m
New Line.LINE281 Bus1=274 Bus2=282 phases=3 Linecode=4c_.2 Length=0.57479 Units=m
New Line.LINE282 Bus1=275 Bus2=283 phases=3 Linecode=3c_.06_AS Length=0.30477 Units=m
New Line.LINE283 Bus1=275 Bus2=284 phases=3 Linecode=3c_.06_AS Length=0.42457 Units=m
New Line.LINE284 Bus1=276 Bus2=285 phases=3 Linecode=3c_.06_AS Length=0.64074 Units=m
New Line.LINE285 Bus1=277 Bus2=286 phases=3 Linecode=2c_.022 Length=1.024 Units=m
New Line.LINE286 Bus1=278 Bus2=287 phases=3 Linecode=25_PSC Length=0.15212 Units=m
New Line.LINE287 Bus1=279 Bus2=288 phases=3 Linecode=4_PSC Length=0.69653 Units=m
New Line.LINE288 Bus1=280 Bus2=289 phases=3 Linecode=3c_.06_AS Length=5.7965 Units=m
New Line.LINE289 Bus1=281 Bus2=290 phases=3 Linecode=3c_.06_AS Length=5.5623 Units=m
New Line.LINE290 Bus1=282 Bus2=291 phases=3 Linecode=4c_.2 Length=0.56324 Units=m
New Line.LINE291 Bus1=283 Bus2=292 phases=3 Linecode=3c_.06_AS Length=0.176 Units=m
New Line.LINE292 Bus1=284 Bus2=293 phases=3 Linecode=3c_.06_AS Length=0.72055 Units=m
New Line.LINE293 Bus1=285 Bus2=294 phases=3 Linecode=3c_.06_AS Length=0.57513 Units=m
New Line.LINE294 Bus1=286 Bus2=295 phases=3 Linecode=2c_.022 Length=7.5947 Units=m
New Line.LINE295 Bus1=287 Bus2=296 phases=3 Linecode=25_PSC Length=0.11014 Units=m
New Line.LINE296 Bus1=291 Bus2=297 phases=3 Linecode=4c_.2 Length=7.6762 Units=m
New Line.LINE297 Bus1=292 Bus2=298 phases=3 Linecode=3c_.06_AS Length=0.17777 Units=m
New Line.LINE298 Bus1=293 Bus2=299 phases=3 Linecode=3c_.06_AS Length=2.0259 Units=m
New Line.LINE299 Bus1=294 Bus2=300 phases=3 Linecode=3c_.06_AS Length=0.40184 Units=m
New Line.LINE300 Bus1=296 Bus2=301 phases=3 Linecode=25_PSC Length=0.064776 Units=m
New Line.LINE301 Bus1=297 Bus2=302 phases=3 Linecode=4c_.2 Length=12.6123 Units=m
New Line.LINE302 Bus1=298 Bus2=303 phases=3 Linecode=3c_.06_AS Length=0.42458 Units=m
New Line.LINE303 Bus1=299 Bus2=304 phases=3 Linecode=3c_.06_AS Length=7.0832 Units=m
New Line.LINE304 Bus1=299 Bus2=305 phases=3 Linecode=2c_.022 Length=0.05728 Units=m
New Line.LINE305 Bus1=300 Bus2=306 phases=3 Linecode=3c_.06_AS Length=0.94843 Units=m
New Line.LINE306 Bus1=301 Bus2=307 phases=3 Linecode=25_PSC Length=0.10924 Units=m
New Line.LINE307 Bus1=302 Bus2=308 phases=3 Linecode=4c_.2 Length=13.7993 Units=m
New Line.LINE308 Bus1=303 Bus2=309 phases=3 Linecode=.007 Length=0.46482 Units=m
New Line.LINE309 Bus1=303 Bus2=310 phases=3 Linecode=3c_.06_AS Length=8.7354 Units=m
New Line.LINE310 Bus1=306 Bus2=311 phases=3 Linecode=3c_.06_AS Length=6.7015 Units=m
New Line.LINE311 Bus1=307 Bus2=312 phases=3 Linecode=25_PSC Length=0.29639 Units=m
New Line.LINE312 Bus1=308 Bus2=313 phases=3 Linecode=4c_.2_SAC Length=1.6409 Units=m
New Line.LINE313 Bus1=309 Bus2=314 phases=3 Linecode=.007 Length=0.2945 Units=m
New Line.LINE314 Bus1=310 Bus2=315 phases=3 Linecode=3c_.06_AS Length=0.19603 Units=m
New Line.LINE315 Bus1=312 Bus2=316 phases=3 Linecode=25_PSC Length=0.2844 Units=m
New Line.LINE316 Bus1=313 Bus2=317 phases=3 Linecode=4c_.2_SAC Length=0.47493 Units=m
New Line.LINE317 Bus1=314 Bus2=318 phases=3 Linecode=.007 Length=0.30312 Units=m
New Line.LINE318 Bus1=315 Bus2=319 phases=3 Linecode=3c_.06_AS Length=0.30431 Units=m
New Line.LINE319 Bus1=316 Bus2=320 phases=3 Linecode=25_PSC Length=0.15527 Units=m
New Line.LINE320 Bus1=317 Bus2=321 phases=3 Linecode=4c_.2_SAC Length=0.42287 Units=m
New Line.LINE321 Bus1=318 Bus2=322 phases=3 Linecode=.007 Length=0.18202 Units=m
New Line.LINE322 Bus1=319 Bus2=323 phases=3 Linecode=3c_.06_AS Length=0.20354 Units=m
New Line.LINE323 Bus1=320 Bus2=324 phases=3 Linecode=25_PSC Length=0.30208 Units=m
New Line.LINE324 Bus1=321 Bus2=325 phases=3 Linecode=4c_.2_SAC Length=0.36514 Units=m
New Line.LINE325 Bus1=322 Bus2=326 phases=3 Linecode=.007 Length=0.17155 Units=m
New Line.LINE326 Bus1=323 Bus2=327 phases=3 Linecode=3c_.06_AS Length=0.21815 Units=m
New Line.LINE327 Bus1=324 Bus2=328 phases=3 Linecode=25_PSC Length=0.20706 Units=m
New Line.LINE328 Bus1=325 Bus2=329 phases=3 Linecode=4c_.2_SAC Length=0.25192 Units=m
New Line.LINE329 Bus1=326 Bus2=330 phases=3 Linecode=4_PSC Length=0.28277 Units=m
New Line.LINE330 Bus1=327 Bus2=331 phases=3 Linecode=3c_.06_AS Length=3.0017 Units=m
New Line.LINE331 Bus1=328 Bus2=332 phases=3 Linecode=25_PSC Length=0.12845 Units=m
New Line.LINE332 Bus1=329 Bus2=333 phases=3 Linecode=4c_.2_SAC Length=0.35859 Units=m
New Line.LINE333 Bus1=330 Bus2=334 phases=3 Linecode=4_PSC Length=0.3649 Units=m
New Line.LINE334 Bus1=332 Bus2=335 phases=3 Linecode=25_PSC Length=0.19961 Units=m
New Line.LINE335 Bus1=333 Bus2=336 phases=3 Linecode=4c_.2_SAC Length=0.44089 Units=m
New Line.LINE336 Bus1=335 Bus2=337 phases=3 Linecode=25_PSC Length=0.18896 Units=m
New Line.LINE337 Bus1=336 Bus2=338 phases=3 Linecode=4c_.2_SAC Length=0.246 Units=m
New Line.LINE338 Bus1=337 Bus2=339 phases=3 Linecode=25_PSC Length=0.28939 Units=m
New Line.LINE339 Bus1=338 Bus2=340 phases=3 Linecode=4c_.2_SAC Length=0.25576 Units=m
New Line.LINE340 Bus1=339 Bus2=341 phases=3 Linecode=25_PSC Length=0.84376 Units=m
New Line.LINE341 Bus1=340 Bus2=342 phases=3 Linecode=4c_.2_SAC Length=0.25378 Units=m
New Line.LINE342 Bus1=341 Bus2=343 phases=3 Linecode=25_PSC Length=7.4165 Units=m
New Line.LINE343 Bus1=342 Bus2=344 phases=3 Linecode=4c_.2_SAC Length=0.51149 Units=m
New Line.LINE344 Bus1=344 Bus2=345 phases=3 Linecode=4c_.2_SAC Length=3.4764 Units=m
New Line.LINE345 Bus1=345 Bus2=346 phases=3 Linecode=3c_.1_AS Length=0.46306 Units=m
New Line.LINE346 Bus1=346 Bus2=347 phases=3 Linecode=2c_.0225 Length=3.0243 Units=m
New Line.LINE347 Bus1=346 Bus2=348 phases=3 Linecode=3c_.1_AS Length=4.7551 Units=m
New Line.LINE348 Bus1=347 Bus2=349 phases=3 Linecode=2c_.0225 Length=7.2907 Units=m
New Line.LINE349 Bus1=348 Bus2=350 phases=3 Linecode=2c_.007 Length=0.60845 Units=m
New Line.LINE350 Bus1=348 Bus2=351 phases=3 Linecode=3c_.1_AS Length=0.8558 Units=m
New Line.LINE351 Bus1=350 Bus2=352 phases=3 Linecode=2c_.007 Length=0.16427 Units=m
New Line.LINE352 Bus1=351 Bus2=353 phases=3 Linecode=3c_.1_AS Length=3.0329 Units=m
New Line.LINE353 Bus1=351 Bus2=354 phases=3 Linecode=3c_.1_AS Length=2.9271 Units=m
New Line.LINE354 Bus1=352 Bus2=355 phases=3 Linecode=2c_.007 Length=0.13613 Units=m
New Line.LINE355 Bus1=353 Bus2=356 phases=3 Linecode=3c_.1_AS Length=7.6413 Units=m
New Line.LINE356 Bus1=354 Bus2=357 phases=3 Linecode=3c_.1_AS Length=3.0262 Units=m
New Line.LINE357 Bus1=354 Bus2=358 phases=3 Linecode=3c_.1_AS Length=7.1732 Units=m
New Line.LINE358 Bus1=355 Bus2=359 phases=3 Linecode=2c_.007 Length=0.15945 Units=m
New Line.LINE359 Bus1=357 Bus2=360 phases=3 Linecode=3c_.1_AS Length=7.6199 Units=m
New Line.LINE360 Bus1=358 Bus2=361 phases=3 Linecode=2c_.0145 Length=2.9739 Units=m
New Line.LINE361 Bus1=358 Bus2=362 phases=3 Linecode=3c_.1_AS Length=9.3357 Units=m
New Line.LINE362 Bus1=359 Bus2=363 phases=3 Linecode=2c_.007 Length=0.21266 Units=m
New Line.LINE363 Bus1=361 Bus2=364 phases=3 Linecode=3c_.1_AS Length=7.9798 Units=m
New Line.LINE364 Bus1=361 Bus2=365 phases=3 Linecode=2c_.0145 Length=0.25856 Units=m
New Line.LINE365 Bus1=362 Bus2=366 phases=3 Linecode=3c_.1_AS Length=2.9821 Units=m
New Line.LINE366 Bus1=362 Bus2=367 phases=3 Linecode=3c_.1_AS Length=2.012 Units=m
New Line.LINE367 Bus1=363 Bus2=368 phases=3 Linecode=2c_.007 Length=0.3658 Units=m
New Line.LINE368 Bus1=365 Bus2=369 phases=3 Linecode=2c_.0145 Length=0.13653 Units=m
New Line.LINE369 Bus1=366 Bus2=370 phases=3 Linecode=3c_.1_AS Length=8.1285 Units=m
New Line.LINE370 Bus1=367 Bus2=371 phases=3 Linecode=3c_.1_AS Length=2.9749 Units=m
New Line.LINE371 Bus1=367 Bus2=372 phases=3 Linecode=3c_.1_AS Length=8.0721 Units=m
New Line.LINE372 Bus1=368 Bus2=373 phases=3 Linecode=2c_.007 Length=0.34545 Units=m
New Line.LINE373 Bus1=369 Bus2=374 phases=3 Linecode=2c_.0145 Length=0.099458 Units=m
New Line.LINE374 Bus1=371 Bus2=375 phases=3 Linecode=3c_.1_AS Length=7.9928 Units=m
New Line.LINE375 Bus1=372 Bus2=376 phases=3 Linecode=3c_.1_AS Length=2.9602 Units=m
New Line.LINE376 Bus1=372 Bus2=377 phases=3 Linecode=3c_.1_AS Length=1.2804 Units=m
New Line.LINE377 Bus1=374 Bus2=378 phases=3 Linecode=2c_.0145 Length=0.18128 Units=m
New Line.LINE378 Bus1=376 Bus2=379 phases=3 Linecode=3c_.1_AS Length=8.4988 Units=m
New Line.LINE379 Bus1=377 Bus2=380 phases=3 Linecode=3c_.1_AS Length=2.9624 Units=m
New Line.LINE380 Bus1=377 Bus2=381 phases=3 Linecode=3c_.1_AS Length=7.1981 Units=m
New Line.LINE381 Bus1=378 Bus2=382 phases=3 Linecode=2c_.0145 Length=1.6123 Units=m
New Line.LINE382 Bus1=380 Bus2=383 phases=3 Linecode=3c_.1_AS Length=7.9607 Units=m
New Line.LINE383 Bus1=381 Bus2=384 phases=3 Linecode=3c_.1_AS Length=2.9944 Units=m
New Line.LINE384 Bus1=381 Bus2=385 phases=3 Linecode=3c_.1_AS Length=3.9608 Units=m
New Line.LINE385 Bus1=382 Bus2=386 phases=3 Linecode=2c_.0145 Length=7.0943 Units=m
New Line.LINE386 Bus1=384 Bus2=387 phases=3 Linecode=3c_.1_AS Length=8.3847 Units=m
New Line.LINE387 Bus1=385 Bus2=388 phases=3 Linecode=3c_.1_AS Length=3.0332 Units=m
New Line.LINE388 Bus1=385 Bus2=389 phases=3 Linecode=3c_.1_AS Length=7.2143 Units=m
New Line.LINE389 Bus1=388 Bus2=390 phases=3 Linecode=3c_.1_AS Length=8.2395 Units=m
New Line.LINE390 Bus1=389 Bus2=391 phases=3 Linecode=3c_.1_AS Length=3.0284 Units=m
New Line.LINE391 Bus1=389 Bus2=392 phases=3 Linecode=3c_.1_AS Length=1.403 Units=m
New Line.LINE392 Bus1=391 Bus2=393 phases=3 Linecode=3c_.1_AS Length=8.2036 Units=m
New Line.LINE393 Bus1=392 Bus2=394 phases=3 Linecode=3c_.1_AS Length=3.029 Units=m
New Line.LINE394 Bus1=392 Bus2=395 phases=3 Linecode=3c_.1_AS Length=3.8388 Units=m
New Line.LINE395 Bus1=394 Bus2=396 phases=3 Linecode=3c_.1_AS Length=8.6666 Units=m
New Line.LINE396 Bus1=395 Bus2=397 phases=3 Linecode=2c_.007 Length=0.094255 Units=m
New Line.LINE397 Bus1=395 Bus2=398 phases=3 Linecode=3c_.1_AS Length=1.1334 Units=m
New Line.LINE398 Bus1=397 Bus2=399 phases=3 Linecode=2c_.007 Length=0.134 Units=m
New Line.LINE399 Bus1=398 Bus2=400 phases=3 Linecode=3c_.1_AS Length=3.3723 Units=m
New Line.LINE400 Bus1=399 Bus2=401 phases=3 Linecode=2c_.007 Length=0.18435 Units=m
New Line.LINE401 Bus1=400 Bus2=402 phases=3 Linecode=3c_.1_AS Length=3.0669 Units=m
New Line.LINE402 Bus1=400 Bus2=403 phases=3 Linecode=3c_.1_AS Length=0.79233 Units=m
New Line.LINE403 Bus1=401 Bus2=404 phases=3 Linecode=4_PSC Length=0.18886 Units=m
New Line.LINE404 Bus1=402 Bus2=405 phases=3 Linecode=3c_.1_AS Length=8.41 Units=m
New Line.LINE405 Bus1=403 Bus2=406 phases=3 Linecode=3c_.1_AS Length=3.0713 Units=m
New Line.LINE406 Bus1=403 Bus2=407 phases=3 Linecode=3c_.1_AS Length=7.9333 Units=m
New Line.LINE407 Bus1=404 Bus2=408 phases=3 Linecode=4_PSC Length=0.19647 Units=m
New Line.LINE408 Bus1=406 Bus2=409 phases=3 Linecode=3c_.1_AS Length=9.0533 Units=m
New Line.LINE409 Bus1=407 Bus2=410 phases=3 Linecode=3c_.1_AS Length=3.2 Units=m
New Line.LINE410 Bus1=407 Bus2=411 phases=3 Linecode=3c_.1_AS Length=1.3104 Units=m
New Line.LINE411 Bus1=408 Bus2=412 phases=3 Linecode=4_PSC Length=0.39404 Units=m
New Line.LINE412 Bus1=410 Bus2=413 phases=3 Linecode=3c_.1_AS Length=8.3286 Units=m
New Line.LINE413 Bus1=411 Bus2=414 phases=3 Linecode=3c_.1_AS Length=3.2233 Units=m
New Line.LINE414 Bus1=411 Bus2=415 phases=3 Linecode=3c_.1_AS Length=7.0249 Units=m
New Line.LINE415 Bus1=412 Bus2=416 phases=3 Linecode=4_PSC Length=0.36204 Units=m
New Line.LINE416 Bus1=414 Bus2=417 phases=3 Linecode=3c_.1_AS Length=8.0446 Units=m
New Line.LINE417 Bus1=415 Bus2=418 phases=3 Linecode=3c_.1_AS Length=1.2429 Units=m
New Line.LINE418 Bus1=415 Bus2=419 phases=3 Linecode=3c_.1_AS Length=1.2429 Units=m
New Line.LINE419 Bus1=418 Bus2=420 phases=3 Linecode=3c_.1_AS Length=2.0117 Units=m
New Line.LINE420 Bus1=418 Bus2=421 phases=3 Linecode=3c_.1_AS Length=3.3334 Units=m
New Line.LINE421 Bus1=418 Bus2=422 phases=3 Linecode=3c_.1_AS Length=2.0117 Units=m
New Line.LINE422 Bus1=420 Bus2=423 phases=3 Linecode=3c_.1_AS Length=7.5664 Units=m
New Line.LINE423 Bus1=420 Bus2=424 phases=3 Linecode=3c_.1_AS Length=3.284 Units=m
New Line.LINE424 Bus1=420 Bus2=425 phases=3 Linecode=3c_.1_AS Length=7.5664 Units=m
New Line.LINE425 Bus1=421 Bus2=426 phases=3 Linecode=3c_.1_AS Length=8.4459 Units=m
New Line.LINE426 Bus1=423 Bus2=427 phases=3 Linecode=3c_.1_AS Length=5.1297 Units=m
New Line.LINE427 Bus1=423 Bus2=428 phases=3 Linecode=3c_.1_AS Length=3.5849 Units=m
New Line.LINE428 Bus1=423 Bus2=429 phases=3 Linecode=3c_.1_AS Length=5.1297 Units=m
New Line.LINE429 Bus1=423 Bus2=430 phases=3 Linecode=2c_.0225 Length=3.5849 Units=m
New Line.LINE430 Bus1=424 Bus2=431 phases=3 Linecode=3c_.1_AS Length=7.8424 Units=m
New Line.LINE431 Bus1=427 Bus2=432 phases=3 Linecode=3c_.1_AS Length=1.2139 Units=m
New Line.LINE432 Bus1=428 Bus2=433 phases=3 Linecode=3c_.1_AS Length=5.1782 Units=m
New Line.LINE433 Bus1=432 Bus2=434 phases=3 Linecode=3c_.1_AS Length=1.208 Units=m
New Line.LINE434 Bus1=432 Bus2=435 phases=3 Linecode=3c_.1_AS Length=4.6204 Units=m
New Line.LINE435 Bus1=434 Bus2=436 phases=3 Linecode=3c_.1_AS Length=0.72564 Units=m
New Line.LINE436 Bus1=435 Bus2=437 phases=3 Linecode=3c_.1_AS Length=2.5046 Units=m
New Line.LINE437 Bus1=435 Bus2=438 phases=3 Linecode=3c_.1_AS Length=5.9327 Units=m
New Line.LINE438 Bus1=436 Bus2=439 phases=3 Linecode=3c_.1_AS Length=1.1371 Units=m
New Line.LINE439 Bus1=437 Bus2=440 phases=3 Linecode=3c_.1_AS Length=0.55043 Units=m
New Line.LINE440 Bus1=438 Bus2=441 phases=3 Linecode=3c_.1_AS Length=1.3533 Units=m
New Line.LINE441 Bus1=438 Bus2=442 phases=3 Linecode=3c_.1_AS Length=4.8411 Units=m
New Line.LINE442 Bus1=439 Bus2=443 phases=3 Linecode=3c_.1_AS Length=0.64287 Units=m
New Line.LINE443 Bus1=440 Bus2=444 phases=3 Linecode=3c_.1_AS Length=0.34928 Units=m
New Line.LINE444 Bus1=441 Bus2=445 phases=3 Linecode=3c_.1_AS Length=0.36401 Units=m
New Line.LINE445 Bus1=442 Bus2=446 phases=3 Linecode=3c_.1_AS Length=1.7657 Units=m
New Line.LINE446 Bus1=442 Bus2=447 phases=3 Linecode=3c_.1_AS Length=7.9316 Units=m
New Line.LINE447 Bus1=443 Bus2=448 phases=3 Linecode=3c_.1_AS Length=5.104 Units=m
New Line.LINE448 Bus1=444 Bus2=449 phases=3 Linecode=3c_.1_AS Length=4.8132 Units=m
New Line.LINE449 Bus1=445 Bus2=450 phases=3 Linecode=3c_.1_AS Length=0.51543 Units=m
New Line.LINE450 Bus1=446 Bus2=451 phases=3 Linecode=3c_.1_AS Length=0.58448 Units=m
New Line.LINE451 Bus1=447 Bus2=452 phases=3 Linecode=3c_.1_AS Length=0.75962 Units=m
New Line.LINE452 Bus1=447 Bus2=453 phases=3 Linecode=3c_.1_AS Length=1.5207 Units=m
New Line.LINE453 Bus1=450 Bus2=454 phases=3 Linecode=3c_.1_AS Length=0.737 Units=m
New Line.LINE454 Bus1=451 Bus2=455 phases=3 Linecode=3c_.1_AS Length=1.0624 Units=m
New Line.LINE455 Bus1=452 Bus2=456 phases=3 Linecode=3c_.1_AS Length=0.26666 Units=m
New Line.LINE456 Bus1=453 Bus2=457 phases=3 Linecode=3c_.1_AS Length=1.1075 Units=m
New Line.LINE457 Bus1=453 Bus2=458 phases=3 Linecode=3c_.1_AS Length=1.2199 Units=m
New Line.LINE458 Bus1=454 Bus2=459 phases=3 Linecode=3c_.1_AS Length=0.5695 Units=m
New Line.LINE459 Bus1=455 Bus2=460 phases=3 Linecode=3c_.1_AS Length=4.4636 Units=m
New Line.LINE460 Bus1=456 Bus2=461 phases=3 Linecode=3c_.1_AS Length=0.72272 Units=m
New Line.LINE461 Bus1=457 Bus2=462 phases=3 Linecode=3c_.1_AS Length=0.66078 Units=m
New Line.LINE462 Bus1=459 Bus2=463 phases=3 Linecode=3c_.1_AS Length=4.0614 Units=m
New Line.LINE463 Bus1=461 Bus2=464 phases=3 Linecode=3c_.1_AS Length=0.54917 Units=m
New Line.LINE464 Bus1=462 Bus2=465 phases=3 Linecode=3c_.1_AS Length=1.3037 Units=m
New Line.LINE465 Bus1=464 Bus2=466 phases=3 Linecode=3c_.1_AS Length=1.0903 Units=m
New Line.LINE466 Bus1=465 Bus2=467 phases=3 Linecode=3c_.1_AS Length=0.52852 Units=m
New Line.LINE467 Bus1=466 Bus2=468 phases=3 Linecode=3c_.1_AS Length=4.5522 Units=m
New Line.LINE468 Bus1=467 Bus2=469 phases=3 Linecode=3c_.1_AS Length=0.26022 Units=m
New Line.LINE469 Bus1=469 Bus2=470 phases=3 Linecode=3c_.1_AS Length=0.25828 Units=m
New Line.LINE470 Bus1=470 Bus2=471 phases=3 Linecode=3c_.1_AS Length=4.9882 Units=m
